go atlas
mesh
x.mesh location=0.00 spac=1.0
x.mesh location=1.00 spac=1.0
y.mesh location=0.00 spac=0.1
y.mesh location=10.00 spac=0.1

region num=1 silicon

electrode name=anode top
electrode name=cathode bottom

doping n.type conc=5.e16 uniform
doping p.type conc=5.e17 y.bottom=5.0 uniform

output con.band val.band QFN QFP
model conmob fldmob srh auger bgn
solve init
save outf=diode.str
tonyplot diode.str
method newton
log outfile=diode.log
solve vanode=5 vstep=-0.1 vfinal=-5 name=anode
# tonyplot diode.log
quit