go atlas

mesh infile=my_otft_refine_init.str

solve init
solve vdrain=-20
log outf=my_otft_refine_trans.log
solve vgate=10 vstep=-0.5 vfinal=-60.0 name=gate
save outf=my_otft_refine_trans.str
tonyplot my_otft_refine_trans.log -set my_otft_refine_trans.set
log off

quit